This python program is used to train an RL agent to drive through a set of connected signalized corridors using Eclipse SUMO framework.
The RL agent is trained using the RL Toolbox in MATLAB using a custom MATLAB wrapper for the python gym environment.


Dependencies:
numpy==1.19.5
keras==2.10.0
keras_rl2==1.0.5
tensorflow==2.5.0
gym==0.17.3

MATLAB R2021b